<routes>
    <vType id="car" accel="1.0" decel="4.5" length="5.0" maxSpeed="13.9" sigma="0.5" />

    <route id="route_1" edges="1 2" />

    <vehicle id="veh0" type="car" route="route_1" depart="0" />
    <vehicle id="veh1" type="car" route="route_1" depart="10" />
    <vehicle id="veh2" type="car" route="route_1" depart="20" />
</routes>
