<additional>
    <tlLogic id="center" type="static" programID="default" offset="0">
        <phase duration="30" state="G"/>
        <phase duration="5" state="y"/>
        <phase duration="30" state="r"/>
    </tlLogic>
</additional>
